28
	Energy:      51.0933273
C          7.75750        1.62065       -2.14943
C          7.51437        2.34675       -3.32334
C          8.51551        3.15372       -3.87194
C          9.77475        3.23634       -3.26420
N         10.76229        4.09079       -3.84358
N         12.00616        3.91276       -3.80558
C         12.66844        2.67410       -3.54458
C         13.91865        2.69885       -2.91355
C         14.60966        1.51012       -2.66085
C         14.06249        0.27959       -3.04922
C         12.82100        0.24891       -3.69892
C         12.12880        1.43687       -3.95177
C         10.01088        2.52036       -2.07283
C          9.00878        1.71413       -1.52500
H          6.54910        2.28861       -3.81057
H          8.31405        3.71276       -4.77722
H         14.35376        3.64351       -2.61195
H         15.57162        1.54713       -2.16509
H         12.39342       -0.69493       -4.01338
H         11.18126        1.38864       -4.47069
H         10.96181        2.59026       -1.56265
H          9.20458        1.16635       -0.61169
N          6.74217        0.80417       -1.59295
H          5.81928        0.73418       -2.04623
H          6.91448        0.27037       -0.72840
N         14.76378       -0.92474       -2.79432
H         15.67842       -0.90776       -2.31971
H         14.36754       -1.83210       -3.08027


