11
	Energy:       0.9868812
C          4.38041        0.47225       -1.09119
C          5.68016       -0.32590       -1.05561
H          3.54846       -0.15426       -0.70613
H          4.14329        0.77767       -2.13266
H          4.46670        1.37911       -0.45534
C          6.85195        0.49995       -1.57768
H          5.56706       -1.23686       -1.68210
H          5.88957       -0.63708       -0.00944
H          6.67009        0.80597       -2.63003
H          7.78108       -0.10682       -1.53925
H          6.99350        1.40744       -0.95271


