50
	Energy:      79.6519458
C          7.74972        1.70522       -1.92085
C          7.57880        2.51594       -3.06870
C          8.68956        3.06397       -3.71990
C          9.97888        2.81714       -3.24520
N         11.09994        3.30108       -3.97296
N         12.24841        3.04093       -3.56797
C         13.42705        3.31768       -4.29728
C         14.62622        2.95283       -3.70080
C         15.82255        3.14313       -4.35760
C         15.86540        3.69870       -5.63138
C         14.66448        4.08460       -6.26574
C         13.43565        3.89239       -5.59082
C         10.14772        2.03584       -2.08304
C          9.04253        1.48803       -1.43329
H          6.60709        2.71068       -3.49014
H          8.54769        3.65875       -4.61282
H         14.62982        2.50464       -2.71570
H         16.74414        2.84464       -3.87366
H         14.67079        4.52038       -7.25717
H         12.50717        4.17651       -6.07171
H         11.13632        1.82528       -1.69304
H          9.19452        0.86761       -0.55773
N          6.66880        1.04451       -1.26192
N         17.15901        3.82737       -6.18228
C          4.40229        0.33146       -0.87240
C          4.76280       -0.61063        0.11107
C          3.78114       -1.39755        0.72282
C          2.43915       -1.25102        0.36170
C          2.07496       -0.31734       -0.61147
C          3.05117        0.47036       -1.22754
H          1.03586       -0.20590       -0.89245
H          2.75567        1.18580       -1.98529
H          4.06135       -2.12433        1.47447
H          1.68143       -1.86252        0.83404
H          5.79845       -0.74315        0.39859
C         19.07532        4.18566       -7.49893
C         19.88331        3.79890       -6.40316
C         21.26823        3.76821       -6.51094
C         21.87939        4.11955       -7.71065
C         21.09926        4.50307       -8.80865
C         19.69739        4.53815       -8.70805
H         19.10824        4.83590       -9.56577
H         22.95851        4.09306       -7.78579
H         21.58543        4.77269       -9.73631
H         19.44095        3.51908       -5.45484
H         21.86404        3.47010       -5.65702
C          5.41829        1.15845       -1.55973
C         17.59591        4.20253       -7.32946
H         16.92499        4.49986       -8.13203
H          5.08344        1.82489       -2.34207


